Version 4
SHEET 1 880 680
WIRE 400 208 288 208
WIRE 352 256 288 256
WIRE 240 288 144 288
WIRE 144 336 144 288
WIRE 400 336 400 208
WIRE 144 448 144 416
WIRE 288 448 288 304
WIRE 288 448 144 448
WIRE 320 448 288 448
WIRE 352 448 352 256
WIRE 352 448 320 448
WIRE 400 448 400 416
WIRE 400 448 352 448
WIRE 320 464 320 448
FLAG 320 464 0
SYMBOL nmos 240 208 R0
SYMATTR InstName M1
SYMBOL voltage 144 320 R0
SYMATTR InstName VGS
SYMATTR Value 1
SYMBOL Misc\\battery 400 320 R0
SYMATTR InstName VDS
SYMATTR Value 4
TEXT 104 496 Left 2 !.model nmos nmos (kp=200u,vto=0.4)
TEXT 120 568 Left 2 !;op
TEXT 120 536 Left 2 !.dc VGS 0 4 0.01
