Version 4
SHEET 1 880 680
SYMBOL nmos 240 208 R0
SYMATTR InstName M1
SYMBOL nmos 240 208 R0
SYMATTR InstName M2
SYMBOL nmos 32 48 R0
SYMATTR InstName M3
