Version 4
SHEET 1 880 680
WIRE 16 16 -48 16
WIRE 112 16 96 16
WIRE 384 16 192 16
WIRE 384 64 384 16
WIRE -48 80 -48 16
WIRE 192 80 192 16
WIRE 112 160 112 16
WIRE 176 160 176 144
WIRE 176 160 112 160
WIRE -48 208 -48 160
WIRE 384 208 384 144
WIRE 384 208 -48 208
WIRE 208 240 208 144
FLAG 208 240 0
SYMBOL voltage -48 64 R0
SYMATTR InstName V1
SYMATTR Value 15
SYMBOL res 112 0 R90
WINDOW 0 0 56 VBottom 2
WINDOW 3 32 56 VTop 2
SYMATTR InstName R1
SYMATTR Value 1k
SYMBOL res 368 48 R0
SYMATTR InstName R2
SYMATTR Value {R2}
SYMBOL AutoGenerated\\78L05 192 112 R90
SYMATTR InstName U1
TEXT -8 296 Left 2 !.step param R2 list 100 5k 1k
TEXT 8 272 Left 2 !.op
