Version 4
SHEET 1 880 680
WIRE 64 128 -16 128
WIRE 320 128 208 128
WIRE 432 128 320 128
WIRE 144 144 144 128
WIRE 144 144 128 144
WIRE -16 160 -16 128
WIRE 208 160 208 128
WIRE 320 160 320 128
WIRE 432 160 432 128
WIRE 128 240 128 144
WIRE 192 240 192 224
WIRE 192 240 128 240
WIRE -16 272 -16 240
WIRE 224 272 224 224
WIRE 224 272 -16 272
WIRE 320 272 320 240
WIRE 320 272 224 272
WIRE 432 272 432 224
WIRE 432 272 320 272
WIRE 224 304 224 272
FLAG 224 304 0
SYMBOL res 160 112 R90
WINDOW 0 0 56 VBottom 2
WINDOW 3 32 56 VTop 2
SYMATTR InstName Rs
SYMATTR Value 1k
SYMBOL voltage -16 144 R0
SYMATTR InstName V
SYMATTR Value 15
SYMBOL cap 416 160 R0
SYMATTR InstName C1
SYMATTR Value {C1}
SYMBOL AutoGenerated\\78L05 208 192 R90
SYMATTR InstName U1
SYMBOL res 304 144 R0
SYMATTR InstName R1
SYMATTR Value 1k
TEXT -32 448 Left 2 !.step param C1 list 5u 500u 50u
TEXT -50 468 Left 2 !.noise v{n002} V lin 10 1k 10k
